** written by FreeCAD inp file writer for CalculiX,Abaqus meshes
** highest dimension mesh elements only.

** Nodes
*Node, NSET=Nall
1, 75, 2.22044604925e-15, 10
2, 75, -5, 10
3, 95, 2.22044604925e-15, 10
4, 95, -5, 10
5, 95, -2.22044604925e-15, -10
6, 95, -5, -10
7, 75, -2.22044604925e-15, -10
8, 75, -5, -10
9, 0, -7.771561172376e-15, -35
10, 0, -5, -35
11, -75, -2.22044604925e-15, -10
12, -75, -5, -10
13, -95, -2.22044604925e-15, -10
14, -95, -5, -10
15, -95, 2.22044604925e-15, 10
16, -95, -5, 10
17, -75, 2.22044604925e-15, 10
18, -75, -5, 10
19, 0, 7.771561172376e-15, 35
20, 0, -5, 35
** ... 34731 like lines cut


** Volume elements
*Element, TYPE=C3D10, ELSET=Evolumes
10407, 19468, 5831, 19651, 19919, 20171, 20169, 20170, 20173, 20172, 20174
10408, 19651, 12708, 19468, 19919, 20176, 20175, 20170, 20174, 20177, 20173
10409, 19466, 13551, 13501, 19546, 20179, 17863, 20178, 20181, 20180, 20182
10410, 6638, 6685, 19466, 19546, 10972, 20183, 20184, 20186, 20185, 20181
10411, 2325, 2413, 19604, 19824, 2746, 20187, 20188, 20190, 20189, 20191
10412, 19577, 12770, 19723, 20053, 20194, 20192, 20193, 20196, 20195, 20197
10413, 19604, 2412, 2325, 20085, 20198, 2747, 20188, 20200, 20199, 20201
10414, 19593, 14150, 19609, 19962, 20204, 20202, 20203, 20206, 20205, 20207
10415, 19505, 6164, 19681, 19767, 20210, 20208, 20209, 20212, 20211, 20213
10416, 19500, 7057, 19597, 19649, 20216, 20214, 20215, 20218, 20217, 20219
10417, 19630, 6375, 19804, 19805, 20222, 20220, 20221, 20224, 20223, 20225
10418, 6008, 7060, 19366, 19432, 11816, 20226, 20227, 20229, 20228, 20230
10419, 19449, 7255, 19514, 19540, 20233, 20231, 20232, 20235, 20234, 20236
10420, 6075, 19728, 19850, 19852, 20239, 20237, 20238, 20241, 20240, 20242
10421, 19769, 13835, 4655, 19770, 20245, 20243, 20244, 20247, 20246, 20248
10422, 1884, 1827, 1926, 19876, 2193, 2194, 1942, 20250, 20249, 20251
10423, 2413, 13311, 19604, 19824, 20253, 20252, 20187, 20189, 20254, 20191
10424, 19837, 6724, 19732, 19893, 20257, 20255, 20256, 20259, 20258, 20260
10425, 7057, 19597, 19649, 19843, 20214, 20219, 20217, 20262, 20261, 20263
10426, 19455, 6534, 19365, 19532, 20266, 20264, 20265, 20268, 20267, 20269
** ... 18600 like lines cut

** Define element set Eall
*ELSET, ELSET=Eall
Evolumes



***********************************************************
** Element sets for materials and FEM element type (solid, shell, beam, fluid)
*ELSET,ELSET=MaterialSolidSolid
Evolumes

***********************************************************
** constraints fixed node sets
** ConstraintFixed
*NSET,NSET=ConstraintFixed
1,
2,
3,
4,
5,
6,
7,
8,
33,
34,
35,
36,
37,
38,
39,
40,
41,
42,
43,
44,
** ... 515 like lines cut

***********************************************************
** Materials
** see information about units at file end
** FreeCAD material name: ABS
** MaterialSolid
*MATERIAL, NAME=MaterialSolid
*ELASTIC
2300,0.37
*DENSITY
1.06E-09

***********************************************************
** Sections
*SOLID SECTION, ELSET=MaterialSolidSolid, MATERIAL=MaterialSolid

***********************************************************
** At least one step is needed to run an CalculiX analysis of FreeCAD
*STEP
*STATIC


***********************************************************
** Fixed Constraints
** ConstraintFixed
*BOUNDARY
ConstraintFixed,1
ConstraintFixed,2
ConstraintFixed,3


***********************************************************
** Self weight Constraint
** ConstraintSelfWeight
*DLOAD
Eall,GRAV,9806,0,0,-1


***********************************************************
** constraints force node loads
*CLOAD
** ConstraintForce
** node loads on shape: Body001:Face8
15,3,-0.0000000000000E+00
16,3,-0.0000000000000E+00
17,3,-0.0000000000000E+00
18,3,-0.0000000000000E+00
536,3,-0.0000000000000E+00
537,3,-0.0000000000000E+00
538,3,-4.0399988596728E-03
539,3,-2.8345771618866E-03
540,3,-4.0192777407702E-03
579,3,-0.0000000000000E+00
580,3,-0.0000000000000E+00
581,3,-4.0123456790124E-03
582,3,-2.8361945682072E-03
583,3,-4.0582527656744E-03
584,3,-0.0000000000000E+00
585,3,-0.0000000000000E+00
586,3,-0.0000000000000E+00
587,3,-0.0000000000000E+00
588,3,-0.0000000000000E+00
589,3,-0.0000000000000E+00
** ... 163 like lines cut



***********************************************************
** Outputs --> frd file
*NODE FILE
U
*EL FILE
S, E
** outputs --> dat file
** reaction forces for Constraint fixed
*NODE PRINT, NSET=ConstraintFixed, TOTALS=ONLY
RF


***********************************************************
*END STEP 

***********************************************************
** CalculiX Input file
**   written by    --> FreeCAD 0.21.1
**   written on    --> Wed Nov 22 15:55:59 2023
**   file name     --> opt_shape.FCStd
**   analysis name --> Analysis
**
**
***********************************************************
**  About units:
**  See ccx manual, ccx does not know about any unit.
**  Golden rule: The user must make sure that the numbers they provide have consistent units.
**  The user is the FreeCAD calculix writer module ;-)
**
**  The unit system which is used at Guido Dhondt's company: mm, N, s, K
**  Since Length and Mass are connected by Force, if Length is mm the Mass is in t to get N
**  The following units are used to write to inp file:
**
**  Length: mm (this includes the mesh geometry)
**  Mass: t
**  TimeSpan: s
**  Temperature: K
**
**  This leads to:
**  Force: N
**  Pressure: N/mm^2 == MPa (Young's Modulus has unit Pressure)
**  Density: t/mm^3
**  Gravity: mm/s^2
**  Thermal conductivity: t*mm/K/s^3 == as W/m/K == kW/mm/K
**  Specific Heat: mm^2/s^2/K = J/kg/K == kJ/t/K
**
